<?xml version="1.0" encoding="UTF-8"?>

<!-- generated on 2022-12-16 18:12:35.333603 by osmWebWizard.py v1_15_0+0002-e6790248698
<configuration>
    <allow-fringe.min-length value="1000.0"/>
    <end value="3600"/>
    <fringe-factor value="5"/>
    <fringe-start-attributes value="departSpeed=&quot;max&quot;"/>
    <insertion-density value="12.0"/>
    <lanes value="True"/>
    <min-distance.fringe value="10.0"/>
    <min-distance value="300.0"/>
    <net-file value="C:\Users\jajia\2022-12-16-18-12-32\osm.net.xml.gz"/>
    <remove-loops value="True"/>
    <route-file value="C:\Users\jajia\2022-12-16-18-12-32\osm.passenger.rou.xml"/>
    <trip-attributes value="departLane=&quot;best&quot;"/>
    <output-trip-file value="C:\Users\jajia\2022-12-16-18-12-32\osm.passenger.trips.xml"/>
    <prefix value="veh"/>
    <validate value="True"/>
    <vehicle-class value="passenger"/>
</configuration>
-->

<!-- generated on 2022-12-16 18:12:35 by Eclipse SUMO duarouter Version 1.15.0
<configuration xmlns:xsi="http://www.w3.org/2001/XMLSchema-instance" xsi:noNamespaceSchemaLocation="http://sumo.dlr.de/xsd/duarouterConfiguration.xsd">

    <input>
        <net-file value="C:\Users\jajia\2022-12-16-18-12-32\osm.net.xml.gz"/>
        <route-files value="C:\Users\jajia\2022-12-16-18-12-32\osm.passenger.trips.xml"/>
    </input>

    <output>
        <output-file value="C:\Users\jajia\2022-12-16-18-12-32\osm.passenger.trips.xml.tmp"/>
        <alternatives-output value="NUL"/>
        <write-trips value="true"/>
    </output>

    <processing>
        <remove-loops value="true"/>
    </processing>

    <time>
        <begin value="0"/>
        <end value="3600"/>
    </time>

    <report>
        <no-warnings value="true"/>
        <ignore-errors value="true"/>
        <no-step-log value="true"/>
    </report>

</configuration>
-->

<routes xmlns:xsi="http://www.w3.org/2001/XMLSchema-instance" xsi:noNamespaceSchemaLocation="http://sumo.dlr.de/xsd/routes_file.xsd">
    <vType id="veh_passenger" vClass="passenger"/>
    <trip id="veh0" type="veh_passenger" depart="0.00" departLane="best" departSpeed="max" from="24117538#0" to="24117538#0"/>
    <trip id="veh3" type="veh_passenger" depart="15.06" departLane="best" from="680281196#0" to="-24082587#0"/>
    <trip id="veh4" type="veh_passenger" depart="20.08" departLane="best" from="178857030#13" to="-146069561#0"/>
    <trip id="veh5" type="veh_passenger" depart="25.10" departLane="best" from="428491477#0" to="-188992758#0"/>
    <trip id="veh7" type="veh_passenger" depart="35.14" departLane="best" from="24537430#1" to="24080877#3"/>
    <trip id="veh8" type="veh_passenger" depart="40.16" departLane="best" from="-428491490#0" to="24087044#2"/>
    <trip id="veh10" type="veh_passenger" depart="50.21" departLane="best" from="503341354" to="283851796#1"/>
    <trip id="veh11" type="veh_passenger" depart="55.23" departLane="best" from="-146061863#2" to="-24104394"/>
    <trip id="veh14" type="veh_passenger" depart="70.29" departLane="best" from="583107027#0" to="24087052#1"/>
    <trip id="veh15" type="veh_passenger" depart="75.31" departLane="best" from="503341354" to="428487433"/>
    <trip id="veh18" type="veh_passenger" depart="90.37" departLane="best" departSpeed="max" from="571991655" to="571991655"/>
    <trip id="veh20" type="veh_passenger" depart="100.41" departLane="best" from="428491476#0" to="-178857022#2"/>
    <trip id="veh22" type="veh_passenger" depart="110.45" departLane="best" from="-435666246#0" to="-435666246#0"/>
    <trip id="veh27" type="veh_passenger" depart="135.55" departLane="best" from="24537430#1" to="24087052#1"/>
    <trip id="veh28" type="veh_passenger" depart="140.58" departLane="best" departSpeed="max" from="-24542415" to="428487433"/>
    <trip id="veh29" type="veh_passenger" depart="145.60" departLane="best" departSpeed="max" from="-24537483#1" to="-146069561#1"/>
    <trip id="veh33" type="veh_passenger" depart="165.68" departLane="best" from="435666234#1" to="-146069561#0"/>
    <trip id="veh35" type="veh_passenger" depart="175.72" departLane="best" departSpeed="max" from="676255491#0" to="676255491#0"/>
    <trip id="veh38" type="veh_passenger" depart="190.78" departLane="best" departSpeed="max" from="24091864#0" to="24091864#0"/>
    <trip id="veh40" type="veh_passenger" depart="200.82" departLane="best" from="915900886-AddedOffRampEdge" to="188992758#2"/>
    <trip id="veh41" type="veh_passenger" depart="205.84" departLane="best" from="24082587#1" to="-178857022#3"/>
    <trip id="veh44" type="veh_passenger" depart="220.90" departLane="best" from="915900886-AddedOffRampEdge" to="188992758#3"/>
    <trip id="veh48" type="veh_passenger" depart="240.99" departLane="best" departSpeed="max" from="676255491#0" to="676255491#0"/>
    <trip id="veh49" type="veh_passenger" depart="246.01" departLane="best" from="-24114555#0" to="-24114555#0"/>
    <trip id="veh50" type="veh_passenger" depart="251.03" departLane="best" from="904474772#2" to="503341355"/>
    <trip id="veh52" type="veh_passenger" depart="261.07" departLane="best" departSpeed="max" from="-24104394" to="-24104394"/>
    <trip id="veh54" type="veh_passenger" depart="271.11" departLane="best" from="503341349#0" to="188992758#3"/>
    <trip id="veh56" type="veh_passenger" depart="281.15" departLane="best" from="908721146" to="908721146"/>
    <trip id="veh57" type="veh_passenger" depart="286.17" departLane="best" from="676255491#1" to="503341349#1"/>
    <trip id="veh60" type="veh_passenger" depart="301.23" departLane="best" from="178857030#5" to="178857030#5"/>
    <trip id="veh62" type="veh_passenger" depart="311.27" departLane="best" from="-24087044#9" to="-24087044#9"/>
    <trip id="veh63" type="veh_passenger" depart="316.29" departLane="best" from="188992758#2" to="24080877#3"/>
    <trip id="veh66" type="veh_passenger" depart="331.36" departLane="best" from="24087044#13" to="428487433"/>
    <trip id="veh67" type="veh_passenger" depart="336.38" departLane="best" departSpeed="max" from="-428487433" to="-428487433"/>
    <trip id="veh69" type="veh_passenger" depart="346.42" departLane="best" from="178857030#24" to="188992758#3"/>
    <trip id="veh71" type="veh_passenger" depart="356.46" departLane="best" from="-146061863#1" to="24087044#14"/>
    <trip id="veh72" type="veh_passenger" depart="361.48" departLane="best" departSpeed="max" from="-24080877#3" to="-24117538#0"/>
    <trip id="veh73" type="veh_passenger" depart="366.50" departLane="best" from="-435666234#1" to="-435666234#1"/>
    <trip id="veh74" type="veh_passenger" depart="371.52" departLane="best" from="24537483#1" to="24537483#1"/>
    <trip id="veh80" type="veh_passenger" depart="401.64" departLane="best" from="178857030#14" to="178857030#19"/>
    <trip id="veh84" type="veh_passenger" depart="421.73" departLane="best" departSpeed="max" from="-435666246#0" to="-435666246#0"/>
    <trip id="veh86" type="veh_passenger" depart="431.77" departLane="best" from="178857030#13" to="178857030#13"/>
    <trip id="veh87" type="veh_passenger" depart="436.79" departLane="best" from="908721146" to="908721146"/>
    <trip id="veh88" type="veh_passenger" depart="441.81" departLane="best" from="178857030#27" to="503341355"/>
    <trip id="veh89" type="veh_passenger" depart="446.83" departLane="best" from="24087044#7" to="24087044#7"/>
    <trip id="veh91" type="veh_passenger" depart="456.87" departLane="best" departSpeed="max" from="909552152" to="908721146"/>
    <trip id="veh92" type="veh_passenger" depart="461.89" departLane="best" from="583107027#1" to="-24113822#1"/>
    <trip id="veh93" type="veh_passenger" depart="466.91" departLane="best" departSpeed="max" from="-428487430" to="-428487430"/>
    <trip id="veh97" type="veh_passenger" depart="486.99" departLane="best" from="178857030#7" to="178857025#2"/>
    <trip id="veh100" type="veh_passenger" depart="502.06" departLane="best" from="-24537483#0" to="583107027#1"/>
    <trip id="veh102" type="veh_passenger" depart="512.10" departLane="best" departSpeed="max" from="-188992758#3" to="24087044#12"/>
    <trip id="veh103" type="veh_passenger" depart="517.12" departLane="best" from="24080884#1" to="503341355"/>
    <trip id="veh105" type="veh_passenger" depart="527.16" departLane="best" from="-24117538#0" to="-24117538#0"/>
    <trip id="veh107" type="veh_passenger" depart="537.20" departLane="best" from="-24087044#3" to="-24087044#3"/>
    <trip id="veh108" type="veh_passenger" depart="542.22" departLane="best" from="680281196#0" to="-435666246#0"/>
    <trip id="veh109" type="veh_passenger" depart="547.24" departLane="best" from="24111033#2" to="24111033#2"/>
    <trip id="veh110" type="veh_passenger" depart="552.26" departLane="best" from="178857030#11" to="24087044#11"/>
    <trip id="veh116" type="veh_passenger" depart="582.38" departLane="best" departSpeed="max" from="-24080877#3" to="428487430"/>
    <trip id="veh118" type="veh_passenger" depart="592.43" departLane="best" from="676255491#2" to="-583146460#1"/>
    <trip id="veh119" type="veh_passenger" depart="597.45" departLane="best" from="178857022#0" to="-24104394"/>
    <trip id="veh120" type="veh_passenger" depart="602.47" departLane="best" departSpeed="max" from="571991655" to="283851796#1"/>
    <trip id="veh121" type="veh_passenger" depart="607.49" departLane="best" departSpeed="max" from="915900885" to="915900885"/>
    <trip id="veh122" type="veh_passenger" depart="612.51" departLane="best" from="24537431#1" to="-1003749477#0"/>
    <trip id="veh123" type="veh_passenger" depart="617.53" departLane="best" departSpeed="max" from="571991655" to="-583146460#0"/>
    <trip id="veh125" type="veh_passenger" depart="627.57" departLane="best" from="-24087044#11" to="-24087044#11"/>
    <trip id="veh126" type="veh_passenger" depart="632.59" departLane="best" from="428491478#0" to="428491478#0"/>
    <trip id="veh127" type="veh_passenger" depart="637.61" departLane="best" departSpeed="max" from="24117538#0" to="24117538#0"/>
    <trip id="veh129" type="veh_passenger" depart="647.65" departLane="best" from="583107027#0" to="-24082587#3"/>
    <trip id="veh130" type="veh_passenger" depart="652.67" departLane="best" from="178857030#14" to="178857030#14"/>
    <trip id="veh132" type="veh_passenger" depart="662.71" departLane="best" departSpeed="max" from="24117538#0" to="24117538#0"/>
    <trip id="veh133" type="veh_passenger" depart="667.73" departLane="best" departSpeed="max" from="435666246#0" to="24080877#3"/>
    <trip id="veh134" type="veh_passenger" depart="672.75" departLane="best" from="178857030#16" to="-1079170653#0"/>
    <trip id="veh136" type="veh_passenger" depart="682.80" departLane="best" departSpeed="max" from="571991655" to="24087044#11"/>
    <trip id="veh137" type="veh_passenger" depart="687.82" departLane="best" from="503341349#1-AddedOnRampEdge" to="503341355"/>
    <trip id="veh138" type="veh_passenger" depart="692.84" departLane="best" from="680281196#2" to="-331770856#0"/>
    <trip id="veh139" type="veh_passenger" depart="697.86" departLane="best" from="-24082797#3" to="-24082797#3"/>
    <trip id="veh140" type="veh_passenger" depart="702.88" departLane="best" departSpeed="max" from="178857028#0" to="178857028#0"/>
    <trip id="veh142" type="veh_passenger" depart="712.92" departLane="best" departSpeed="max" from="909552151#1-AddedOnRampEdge" to="909552151#1-AddedOnRampEdge"/>
    <trip id="veh143" type="veh_passenger" depart="717.94" departLane="best" from="503341355" to="503341355"/>
    <trip id="veh144" type="veh_passenger" depart="722.96" departLane="best" from="146069561#2" to="428487433"/>
    <trip id="veh146" type="veh_passenger" depart="733.00" departLane="best" from="503341354" to="503341355"/>
    <trip id="veh147" type="veh_passenger" depart="738.02" departLane="best" from="503341355" to="503341355"/>
    <trip id="veh148" type="veh_passenger" depart="743.04" departLane="best" from="503341349#0-AddedOnRampEdge" to="-24087044#1"/>
    <trip id="veh149" type="veh_passenger" depart="748.06" departLane="best" departSpeed="max" from="676255491#0" to="503341355"/>
    <trip id="veh150" type="veh_passenger" depart="753.08" departLane="best" from="-428491490#1" to="-474070959#1"/>
    <trip id="veh151" type="veh_passenger" depart="758.10" departLane="best" from="178857032#0" to="-583146460#1"/>
    <trip id="veh154" type="veh_passenger" depart="773.17" departLane="best" from="1079170653#0" to="503341355"/>
    <trip id="veh156" type="veh_passenger" depart="783.21" departLane="best" from="24117538#1" to="-178857022#1"/>
    <trip id="veh159" type="veh_passenger" depart="798.27" departLane="best" departSpeed="max" from="909552152" to="909552152"/>
    <trip id="veh161" type="veh_passenger" depart="808.31" departLane="best" from="428491490#1" to="428491490#1"/>
    <trip id="veh162" type="veh_passenger" depart="813.33" departLane="best" departSpeed="max" from="188992758#2" to="188992758#2"/>
    <trip id="veh163" type="veh_passenger" depart="818.35" departLane="best" departSpeed="max" from="178857028#0" to="178857028#0"/>
    <trip id="veh164" type="veh_passenger" depart="823.37" departLane="best" from="32502756#1" to="32502756#1"/>
    <trip id="veh168" type="veh_passenger" depart="843.45" departLane="best" from="147562380#1" to="-24080877#0"/>
    <trip id="veh170" type="veh_passenger" depart="853.49" departLane="best" departSpeed="max" from="1051779375#0" to="503341354"/>
    <trip id="veh171" type="veh_passenger" depart="858.51" departLane="best" from="428491478#0" to="-583146460#0"/>
    <trip id="veh173" type="veh_passenger" depart="868.56" departLane="best" from="909552151#1-AddedOffRampEdge" to="24537575"/>
    <trip id="veh175" type="veh_passenger" depart="878.60" departLane="best" from="1003749477#1" to="24080877#3"/>
    <trip id="veh177" type="veh_passenger" depart="888.64" departLane="best" from="178857030#18" to="24087044#1"/>
    <trip id="veh178" type="veh_passenger" depart="893.66" departLane="best" from="24537431#1" to="178857030#18"/>
    <trip id="veh180" type="veh_passenger" depart="903.70" departLane="best" from="188992758#3" to="188992758#3"/>
    <trip id="veh184" type="veh_passenger" depart="923.78" departLane="best" departSpeed="max" from="-428487433" to="-428487433"/>
    <trip id="veh185" type="veh_passenger" depart="928.80" departLane="best" from="178857030#25" to="178857030#25"/>
    <trip id="veh186" type="veh_passenger" depart="933.82" departLane="best" from="178857030#0" to="-24114555#1"/>
    <trip id="veh188" type="veh_passenger" depart="943.86" departLane="best" from="24537595" to="-1003749477#0"/>
    <trip id="veh190" type="veh_passenger" depart="953.91" departLane="best" departSpeed="max" from="24082797#0" to="24082797#0"/>
    <trip id="veh191" type="veh_passenger" depart="958.93" departLane="best" from="503341355" to="503341355"/>
    <trip id="veh192" type="veh_passenger" depart="963.95" departLane="best" from="178857030#8" to="178857030#8"/>
    <trip id="veh195" type="veh_passenger" depart="979.01" departLane="best" from="680281196#0" to="680281196#0"/>
    <trip id="veh196" type="veh_passenger" depart="984.03" departLane="best" from="428491478#0" to="-188992758#0"/>
    <trip id="veh197" type="veh_passenger" depart="989.05" departLane="best" departSpeed="max" from="571991655" to="24080877#3"/>
    <trip id="veh198" type="veh_passenger" depart="994.07" departLane="best" from="680281196#2" to="428487433"/>
    <trip id="veh199" type="veh_passenger" depart="999.09" departLane="best" from="188992758#0" to="188992758#0"/>
    <trip id="veh200" type="veh_passenger" depart="1004.11" departLane="best" from="24536764" to="24536764"/>
    <trip id="veh201" type="veh_passenger" depart="1009.13" departLane="best" from="188992758#3" to="188992758#3"/>
    <trip id="veh202" type="veh_passenger" depart="1014.15" departLane="best" departSpeed="max" from="24114555#0" to="24114555#0"/>
    <trip id="veh203" type="veh_passenger" depart="1019.17" departLane="best" from="-57883823#2" to="-57883823#2"/>
    <trip id="veh204" type="veh_passenger" depart="1024.19" departLane="best" from="-583107027#1" to="-676255491#0"/>
    <trip id="veh205" type="veh_passenger" depart="1029.21" departLane="best" from="24087044#14" to="-24091864#0"/>
    <trip id="veh206" type="veh_passenger" depart="1034.23" departLane="best" from="435666246#1" to="24538174"/>
    <trip id="veh207" type="veh_passenger" depart="1039.25" departLane="best" from="428491476#0" to="428491476#0"/>
    <trip id="veh209" type="veh_passenger" depart="1049.30" departLane="best" from="178857030#12" to="178857030#12"/>
    <trip id="veh210" type="veh_passenger" depart="1054.32" departLane="best" departSpeed="max" from="24111033#0" to="24542514"/>
    <trip id="veh216" type="veh_passenger" depart="1084.44" departLane="best" from="24087044#4" to="24087052#1"/>
    <trip id="veh217" type="veh_passenger" depart="1089.46" departLane="best" from="178857030#22" to="178857030#22"/>
    <trip id="veh218" type="veh_passenger" depart="1094.48" departLane="best" from="-146061863#0" to="24537595"/>
    <trip id="veh220" type="veh_passenger" depart="1104.52" departLane="best" from="178857032#2" to="-24087044#8"/>
    <trip id="veh221" type="veh_passenger" depart="1109.54" departLane="best" departSpeed="max" from="178857028#0" to="178857028#0"/>
    <trip id="veh223" type="veh_passenger" depart="1119.58" departLane="best" departSpeed="max" from="-188992758#3" to="-146069561#1"/>
    <trip id="veh225" type="veh_passenger" depart="1129.62" departLane="best" from="146069561#1" to="146069561#1"/>
    <trip id="veh226" type="veh_passenger" depart="1134.65" departLane="best" departSpeed="max" from="435666246#0" to="503341349#1"/>
    <trip id="veh230" type="veh_passenger" depart="1154.73" departLane="best" from="-24104394" to="-24104394"/>
    <trip id="veh233" type="veh_passenger" depart="1169.79" departLane="best" from="-24538174" to="24087052#1"/>
    <trip id="veh234" type="veh_passenger" depart="1174.81" departLane="best" departSpeed="max" from="435666246#0" to="-24087044#13"/>
    <trip id="veh236" type="veh_passenger" depart="1184.85" departLane="best" from="-24087044#11" to="-24087044#11"/>
    <trip id="veh239" type="veh_passenger" depart="1199.91" departLane="best" from="428491478#0" to="428491478#0"/>
    <trip id="veh240" type="veh_passenger" depart="1204.93" departLane="best" from="331770853#1" to="24114127#4"/>
    <trip id="veh241" type="veh_passenger" depart="1209.95" departLane="best" from="428491477#0" to="428491477#0"/>
    <trip id="veh242" type="veh_passenger" depart="1214.97" departLane="best" departSpeed="max" from="583146460#0" to="-24087044#9"/>
    <trip id="veh244" type="veh_passenger" depart="1225.02" departLane="best" from="503341349#0" to="503341349#0"/>
    <trip id="veh251" type="veh_passenger" depart="1260.16" departLane="best" from="178857030#22" to="428487433"/>
    <trip id="veh252" type="veh_passenger" depart="1265.18" departLane="best" from="503341355" to="503341355"/>
    <trip id="veh254" type="veh_passenger" depart="1275.22" departLane="best" from="178857032#1" to="-24091864#1"/>
    <trip id="veh255" type="veh_passenger" depart="1280.24" departLane="best" from="178857025#1" to="178857025#1"/>
    <trip id="veh256" type="veh_passenger" depart="1285.26" departLane="best" departSpeed="max" from="583146460#0" to="-24114555#1"/>
    <trip id="veh258" type="veh_passenger" depart="1295.30" departLane="best" from="-146061863#2" to="-583146460#2"/>
    <trip id="veh259" type="veh_passenger" depart="1300.32" departLane="best" from="428487430" to="428487430"/>
    <trip id="veh261" type="veh_passenger" depart="1310.36" departLane="best" from="331770856#1" to="331770856#1"/>
    <trip id="veh262" type="veh_passenger" depart="1315.39" departLane="best" departSpeed="max" from="428487437" to="428487437"/>
    <trip id="veh263" type="veh_passenger" depart="1320.41" departLane="best" departSpeed="max" from="435666234#1" to="435666234#1"/>
    <trip id="veh265" type="veh_passenger" depart="1330.45" departLane="best" from="331770853#1" to="-583146460#1"/>
    <trip id="veh266" type="veh_passenger" depart="1335.47" departLane="best" departSpeed="max" from="24104394" to="178857030#24"/>
    <trip id="veh268" type="veh_passenger" depart="1345.51" departLane="best" departSpeed="max" from="435666246#0" to="-676255491#4"/>
    <trip id="veh269" type="veh_passenger" depart="1350.53" departLane="best" from="-24087044#4" to="-24087044#4"/>
    <trip id="veh271" type="veh_passenger" depart="1360.57" departLane="best" departSpeed="max" from="428487433" to="428487433"/>
    <trip id="veh273" type="veh_passenger" depart="1370.61" departLane="best" from="676255491#4" to="-24082797#2"/>
    <trip id="veh276" type="veh_passenger" depart="1385.67" departLane="best" from="24087044#10" to="24087044#10"/>
    <trip id="veh277" type="veh_passenger" depart="1390.69" departLane="best" departSpeed="max" from="909552152" to="909552152"/>
    <trip id="veh278" type="veh_passenger" depart="1395.71" departLane="best" from="331770856#0" to="-24087044#7"/>
    <trip id="veh279" type="veh_passenger" depart="1400.73" departLane="best" departSpeed="max" from="178857030#8" to="178857030#8"/>
    <trip id="veh280" type="veh_passenger" depart="1405.76" departLane="best" departSpeed="max" from="676255491#0" to="24082797#3"/>
    <trip id="veh282" type="veh_passenger" depart="1415.80" departLane="best" from="-331770855#0" to="-331770855#0"/>
    <trip id="veh284" type="veh_passenger" depart="1425.84" departLane="best" departSpeed="max" from="571991655" to="-178857022#2"/>
    <trip id="veh285" type="veh_passenger" depart="1430.86" departLane="best" departSpeed="max" from="-24080877#3" to="24114555#1"/>
    <trip id="veh286" type="veh_passenger" depart="1435.88" departLane="best" departSpeed="max" from="-188992758#3" to="-188992758#3"/>
    <trip id="veh287" type="veh_passenger" depart="1440.90" departLane="best" departSpeed="max" from="24091864#0" to="-583146460#0"/>
    <trip id="veh288" type="veh_passenger" depart="1445.92" departLane="best" from="915900886-AddedOffRampEdge" to="-24087044#2"/>
    <trip id="veh289" type="veh_passenger" depart="1450.94" departLane="best" from="24087052#1" to="24087052#1"/>
    <trip id="veh291" type="veh_passenger" depart="1460.98" departLane="best" departSpeed="max" from="24082797#0" to="178857030#0"/>
    <trip id="veh292" type="veh_passenger" depart="1466.00" departLane="best" from="178857030#27" to="503341355"/>
    <trip id="veh293" type="veh_passenger" depart="1471.02" departLane="best" from="-24537483#0" to="24087052#1"/>
    <trip id="veh296" type="veh_passenger" depart="1486.08" departLane="best" from="-24538174" to="-24104394"/>
    <trip id="veh297" type="veh_passenger" depart="1491.10" departLane="best" departSpeed="max" from="-24542415" to="-24542415"/>
    <trip id="veh300" type="veh_passenger" depart="1506.17" departLane="best" from="435666246#1" to="-32502756#0"/>
    <trip id="veh301" type="veh_passenger" depart="1511.19" departLane="best" from="428491476#0" to="178857030#11"/>
    <trip id="veh305" type="veh_passenger" depart="1531.27" departLane="best" from="178857030#15" to="24080877#2"/>
    <trip id="veh306" type="veh_passenger" depart="1536.29" departLane="best" from="24537430#1" to="24537430#1"/>
    <trip id="veh307" type="veh_passenger" depart="1541.31" departLane="best" departSpeed="max" from="571991655" to="24080877#1"/>
    <trip id="veh308" type="veh_passenger" depart="1546.33" departLane="best" from="-24538174" to="583146460#2"/>
    <trip id="veh309" type="veh_passenger" depart="1551.35" departLane="best" departSpeed="max" from="435666246#0" to="-24082587#2"/>
    <trip id="veh310" type="veh_passenger" depart="1556.37" departLane="best" from="-24087044#6" to="-24087044#6"/>
    <trip id="veh311" type="veh_passenger" depart="1561.39" departLane="best" departSpeed="max" from="331770853#0" to="283851796#1"/>
    <trip id="veh314" type="veh_passenger" depart="1576.45" departLane="best" departSpeed="max" from="1051779375#0" to="-435666246#0"/>
    <trip id="veh315" type="veh_passenger" depart="1581.47" departLane="best" departSpeed="max" from="571991655" to="571991655"/>
    <trip id="veh316" type="veh_passenger" depart="1586.50" departLane="best" departSpeed="max" from="24542498" to="24542498"/>
    <trip id="veh319" type="veh_passenger" depart="1601.56" departLane="best" from="-24114555#0" to="-24114555#0"/>
    <trip id="veh323" type="veh_passenger" depart="1621.64" departLane="best" from="1079170653#1" to="24538174"/>
    <trip id="veh325" type="veh_passenger" depart="1631.68" departLane="best" departSpeed="max" from="571991655" to="24080877#3"/>
    <trip id="veh326" type="veh_passenger" depart="1636.70" departLane="best" from="178857030#7" to="178857030#7"/>
    <trip id="veh331" type="veh_passenger" depart="1661.80" departLane="best" from="-331770855#2" to="-1079170653#2"/>
    <trip id="veh332" type="veh_passenger" depart="1666.82" departLane="best" from="24114127#2" to="24114127#2"/>
    <trip id="veh335" type="veh_passenger" depart="1681.89" departLane="best" from="178857030#24" to="283851796#1"/>
    <trip id="veh337" type="veh_passenger" depart="1691.93" departLane="best" departSpeed="max" from="-435666246#0" to="-435666246#0"/>
    <trip id="veh338" type="veh_passenger" depart="1696.95" departLane="best" departSpeed="max" from="-24537483#1" to="24080877#3"/>
    <trip id="veh340" type="veh_passenger" depart="1706.99" departLane="best" from="915900886" to="915900886"/>
    <trip id="veh341" type="veh_passenger" depart="1712.01" departLane="best" from="178857032#0" to="-24087044#2"/>
    <trip id="veh343" type="veh_passenger" depart="1722.05" departLane="best" from="428491478#0" to="188992758#2"/>
    <trip id="veh345" type="veh_passenger" depart="1732.09" departLane="best" from="24087044#8" to="146069561#4"/>
    <trip id="veh347" type="veh_passenger" depart="1742.13" departLane="best" from="676255491#1" to="503341355"/>
    <trip id="veh348" type="veh_passenger" depart="1747.15" departLane="best" from="435666234#0" to="435666234#0"/>
    <trip id="veh350" type="veh_passenger" depart="1757.19" departLane="best" from="503341349#0" to="503341349#0"/>
    <trip id="veh351" type="veh_passenger" depart="1762.21" departLane="best" from="-676255491#4" to="-583146460#0"/>
    <trip id="veh352" type="veh_passenger" depart="1767.24" departLane="best" departSpeed="max" from="24111033#0" to="915900886-AddedOffRampEdge"/>
    <trip id="veh354" type="veh_passenger" depart="1777.28" departLane="best" from="24087044#13" to="24087044#13"/>
    <trip id="veh355" type="veh_passenger" depart="1782.30" departLane="best" from="24087044#8" to="24080877#2"/>
    <trip id="veh356" type="veh_passenger" depart="1787.32" departLane="best" from="178857030#7" to="-676255491#0"/>
    <trip id="veh357" type="veh_passenger" depart="1792.34" departLane="best" from="-331770856#0" to="283851796#0"/>
    <trip id="veh358" type="veh_passenger" depart="1797.36" departLane="best" departSpeed="max" from="-435666246#0" to="-435666246#0"/>
    <trip id="veh359" type="veh_passenger" depart="1802.38" departLane="best" from="-474070959#3" to="-178857022#0"/>
    <trip id="veh360" type="veh_passenger" depart="1807.40" departLane="best" departSpeed="max" from="435666246#0" to="283851796#1"/>
    <trip id="veh364" type="veh_passenger" depart="1827.48" departLane="best" from="178857032#2" to="178857032#2"/>
    <trip id="veh365" type="veh_passenger" depart="1832.50" departLane="best" departSpeed="max" from="24111033#0" to="503341355"/>
    <trip id="veh367" type="veh_passenger" depart="1842.54" departLane="best" from="24082797#3" to="178857030#12"/>
    <trip id="veh368" type="veh_passenger" depart="1847.56" departLane="best" from="24537595" to="-24104394"/>
    <trip id="veh370" type="veh_passenger" depart="1857.61" departLane="best" from="-146061863#1" to="24538174"/>
    <trip id="veh371" type="veh_passenger" depart="1862.63" departLane="best" from="24537430#1" to="503341355"/>
    <trip id="veh372" type="veh_passenger" depart="1867.65" departLane="best" departSpeed="max" from="583146460#0" to="503341355"/>
    <trip id="veh373" type="veh_passenger" depart="1872.67" departLane="best" from="178857025#1" to="178857025#1"/>
    <trip id="veh375" type="veh_passenger" depart="1882.71" departLane="best" departSpeed="max" from="676255491#0" to="-146069561#0"/>
    <trip id="veh376" type="veh_passenger" depart="1887.73" departLane="best" departSpeed="max" from="-24080877#3" to="-24117538#0"/>
    <trip id="veh378" type="veh_passenger" depart="1897.77" departLane="best" from="-24082797#3" to="-24117538#1"/>
    <trip id="veh381" type="veh_passenger" depart="1912.83" departLane="best" departSpeed="max" from="1003749477#0" to="1003749477#0"/>
    <trip id="veh382" type="veh_passenger" depart="1917.85" departLane="best" from="24114127#1" to="188992758#3"/>
    <trip id="veh383" type="veh_passenger" depart="1922.87" departLane="best" from="435666234#1" to="435666234#1"/>
    <trip id="veh385" type="veh_passenger" depart="1932.91" departLane="best" departSpeed="max" from="676255491#0" to="676255491#0"/>
    <trip id="veh387" type="veh_passenger" depart="1942.95" departLane="best" from="24114127#0" to="178857030#15"/>
    <trip id="veh388" type="veh_passenger" depart="1947.98" departLane="best" from="24537575" to="24537575"/>
    <trip id="veh390" type="veh_passenger" depart="1958.02" departLane="best" from="24087044#14" to="24087044#14"/>
    <trip id="veh392" type="veh_passenger" depart="1968.06" departLane="best" from="503341354" to="503341354"/>